Circuit: * C:\Users\user\Documents\LTspiceXVII\file\Dual_Active_Bridge_Converter\Draft3.asc

Per .tran options, skipping operating point for transient analysis.
Heightened Def Con from 3.49997e-005 to 3.50003e-005
Heightened Def Con from 5.5e-005 to 5.50011e-005
Heightened Def Con from 0.00082 to 0.000820001
Heightened Def Con from 0.00138 to 0.00138001
Heightened Def Con from 0.00139 to 0.00139001
Heightened Def Con from 0.00259511 to 0.00259512
Heightened Def Con from 0.00665512 to 0.00665512

Date: Sun Aug 22 22:14:36 2021
Total elapsed time: 12.827 seconds.

tnom = 27
temp = 27
method = modified trap
totiter = 1701314
traniter = 1701314
tranpoints = 455883
accept = 332702
rejected = 123188
matrix size = 65
fillins = 56
solver = Normal
Matrix Compiler1: 7.69 KB object code size  1.0/0.5/[0.3]
Matrix Compiler2: 6.30 KB object code size  0.4/0.5/[0.2]

