Circuit: * C:\Users\khduh\Documents\LTspiceXVII\file\Draft2.asc

C1: Increased Cpar to 2.2e-011
Limiting rise time of source v2 to 2.2e-007
Limiting fall time of source v2 to 2.2e-007
Direct Newton iteration for .op point succeeded.

Date: Mon Aug 16 11:06:54 2021
Total elapsed time: 2.286 seconds.

tnom = 27
temp = 27
method = modified trap
totiter = 1613137
traniter = 1613132
tranpoints = 461647
accept = 347559
rejected = 114088
matrix size = 12
fillins = 0
solver = Normal
Matrix Compiler1:      33 opcodes  0.1/[0.1]/0.1
Matrix Compiler2: 880 bytes object code size  0.1/0.1/[0.1]

