Circuit: * C:\Users\khduh\Documents\LTspiceXVII\file\Draft1.asc

.OP point found by inspection.

Date: Thu Aug 12 13:08:40 2021
Total elapsed time: 0.032 seconds.

tnom = 27
temp = 27
method = modified trap
totiter = 2748
traniter = 2748
tranpoints = 1375
accept = 1277
rejected = 98
matrix size = 4
fillins = 0
solver = Normal
Matrix Compiler1: 100 bytes object code size  0.0/0.0/[0.0]
Matrix Compiler2:      21 opcodes  0.0/[0.0]/0.1

